
  EPA STORM WATER MANAGEMENT MODEL - VERSION 5.1 (Build 5.1.012)
  --------------------------------------------------------------

  
  ERROR 205: invalid keyword SURCHARGE_METHOD at line 31 of [OPTION] section:
  SURCHARGE_METHOD

  Analysis begun on:  Sun Nov 18 08:12:09 2018
  Analysis ended on:  Sun Nov 18 08:12:09 2018
  Total elapsed time: < 1 sec