
  EPA STORM WATER MANAGEMENT MODEL - VERSION 5.1 (Build 5.1.013)
  --------------------------------------------------------------

  
  *********************************************************
  NOTE: The summary statistics displayed in this report are
  based on results found at every computational time step,  
  not just on results from each reporting time step.
  *********************************************************
  
  ****************
  Analysis Options
  ****************
  Flow Units ............... LPS
  Process Models:
    Rainfall/Runoff ........ NO
    RDII ................... NO
    Snowmelt ............... NO
    Groundwater ............ NO
    Flow Routing ........... YES
    Ponding Allowed ........ NO
    Water Quality .......... NO
  Flow Routing Method ...... DYNWAVE
  Surcharge Method ......... EXTRAN
  Starting Date ............ 06/28/2017 00:00:00
  Ending Date .............. 06/28/2017 12:00:00
  Antecedent Dry Days ...... 0.0
  Report Time Step ......... 00:01:00
  Routing Time Step ........ 20.00 sec
  Variable Time Step ....... YES
  Maximum Trials ........... 12
  Number of Threads ........ 1
  Head Tolerance ........... 0.000010 m
  
  
  **************************        Volume        Volume
  Flow Routing Continuity        hectare-m      10^6 ltr
  **************************     ---------     ---------
  Dry Weather Inflow .......         0.000         0.000
  Wet Weather Inflow .......         0.000         0.000
  Groundwater Inflow .......         0.000         0.000
  RDII Inflow ..............         0.000         0.000
  External Inflow ..........         0.864         8.640
  External Outflow .........         0.086         0.860
  Flooding Loss ............         0.262         2.624
  Evaporation Loss .........         0.000         0.000
  Exfiltration Loss ........         0.000         0.000
  Initial Stored Volume ....         0.000         0.000
  Final Stored Volume ......         0.254         2.537
  Continuity Error (%) .....        30.314
  
  
  *************************
  Highest Continuity Errors
  *************************
  Node 5 (80.00%)
  Node 2 (37.05%)
  
  
  ***************************
  Time-Step Critical Elements
  ***************************
  Link 2 (99.83%)
  
  
  ********************************
  Highest Flow Instability Indexes
  ********************************
  Link 3 (1)
  
  
  *************************
  Routing Time Step Summary
  *************************
  Minimum Time Step           :     0.40 sec
  Average Time Step           :     1.50 sec
  Maximum Time Step           :    20.00 sec
  Percent in Steady State     :    -0.00
  Average Iterations per Step :     2.28
  Percent Not Converging      :     2.73
  
  
  ******************
  Node Depth Summary
  ******************
  
  ---------------------------------------------------------------------------------
                                 Average  Maximum  Maximum  Time of Max    Reported
                                   Depth    Depth      HGL   Occurrence   Max Depth
  Node                 Type       Meters   Meters   Meters  days hr:min      Meters
  ---------------------------------------------------------------------------------
  1                    JUNCTION     7.02    10.00    20.00     0  03:54       10.00
  2                    JUNCTION     7.51    10.50    20.00     0  03:54       10.50
  3                    OUTFALL      0.06     0.06     9.36     0  00:04        0.06
  6                    OUTFALL      0.06     0.06     9.36     0  00:04        0.06
  4                    STORAGE      4.22    10.00    20.00     0  11:59       10.00
  5                    STORAGE      4.71    10.50    20.00     0  11:59       10.50
  
  
  *******************
  Node Inflow Summary
  *******************
  
  -------------------------------------------------------------------------------------------------
                                  Maximum  Maximum                  Lateral       Total        Flow
                                  Lateral    Total  Time of Max      Inflow      Inflow     Balance
                                   Inflow   Inflow   Occurrence      Volume      Volume       Error
  Node                 Type           LPS      LPS  days hr:min    10^6 ltr    10^6 ltr     Percent
  -------------------------------------------------------------------------------------------------
  1                    JUNCTION    100.00   193.52     0  03:35        4.32        4.35      16.686
  2                    JUNCTION      0.00   143.31     0  03:34           0        1.75      58.859
  3                    OUTFALL       0.00    10.00     0  00:04           0        0.43       0.000
  6                    OUTFALL       0.00    10.00     0  00:04           0        0.43       0.000
  4                    STORAGE     100.00   140.62     0  03:34        4.32        4.37      74.931
  5                    STORAGE       0.00   136.16     0  04:07           0        2.49     400.055
  
  
  **********************
  Node Surcharge Summary
  **********************
  
  Surcharging occurs when water rises above the top of the highest conduit.
  ---------------------------------------------------------------------
                                               Max. Height   Min. Depth
                                   Hours       Above Crown    Below Rim
  Node                 Type      Surcharged         Meters       Meters
  ---------------------------------------------------------------------
  1                    JUNCTION        8.10          8.000        0.000
  2                    JUNCTION        8.42          8.500        0.000
  
  
  *********************
  Node Flooding Summary
  *********************
  
  Flooding refers to all water that overflows a node, whether it ponds or not.
  --------------------------------------------------------------------------
                                                             Total   Maximum
                                 Maximum   Time of Max       Flood    Ponded
                        Hours       Rate    Occurrence      Volume     Depth
  Node                 Flooded       LPS   days hr:min    10^6 ltr    Meters
  --------------------------------------------------------------------------
  1                       8.09     77.41      0  12:00       1.985     0.000
  2                       8.09     36.90      0  03:54       0.635     0.000
  4                       0.01     63.90      0  11:59       0.003     0.000
  5                       0.01     32.55      0  11:59       0.001     0.000
  
  
  **********************
  Storage Volume Summary
  **********************
  
  --------------------------------------------------------------------------------------------------
                         Average     Avg  Evap Exfil       Maximum     Max    Time of Max    Maximum
                          Volume    Pcnt  Pcnt  Pcnt        Volume    Pcnt     Occurrence    Outflow
  Storage Unit           1000 m3    Full  Loss  Loss       1000 m3    Full    days hr:min        LPS
  --------------------------------------------------------------------------------------------------
  4                        0.005      42     0     0         0.012     100       0  11:59     136.16
  5                        0.006      45     0     0         0.012     100       0  11:59      50.62
  
  
  ***********************
  Outfall Loading Summary
  ***********************
  
  -----------------------------------------------------------
                         Flow       Avg       Max       Total
                         Freq      Flow      Flow      Volume
  Outfall Node           Pcnt       LPS       LPS    10^6 ltr
  -----------------------------------------------------------
  3                     99.99      9.98     10.00       0.430
  6                     99.99      9.98     10.00       0.430
  -----------------------------------------------------------
  System                99.99     19.96     10.00       0.860
  
  
  ********************
  Link Flow Summary
  ********************
  
  -----------------------------------------------------------------------------
                                 Maximum  Time of Max   Maximum    Max/    Max/
                                  |Flow|   Occurrence   |Veloc|    Full    Full
  Link                 Type          LPS  days hr:min     m/sec    Flow   Depth
  -----------------------------------------------------------------------------
  1                    CONDUIT    143.31     0  03:34      0.97    0.02    1.00
  2                    CONDUIT     10.00     0  00:04      1.86    0.74    0.82
  3                    CONDUIT    136.16     0  04:07      0.98    0.02    1.00
  4                    CONDUIT     10.00     0  00:04      1.86    0.74    0.82
  
  
  ***************************
  Flow Classification Summary
  ***************************
  
  -------------------------------------------------------------------------------------
                      Adjusted    ---------- Fraction of Time in Flow Class ---------- 
                       /Actual         Up    Down  Sub   Sup   Up    Down  Norm  Inlet 
  Conduit               Length    Dry  Dry   Dry   Crit  Crit  Crit  Crit  Ltd   Ctrl  
  -------------------------------------------------------------------------------------
  1                       1.00   0.00  0.00  0.00  0.99  0.01  0.00  0.00  0.04  0.00
  2                       1.00   0.00  0.00  0.00  0.00  1.00  0.00  0.00  0.00  0.00
  3                       1.00   0.00  0.00  0.00  0.99  0.01  0.00  0.00  0.04  0.00
  4                       1.00   0.00  0.00  0.00  0.00  1.00  0.00  0.00  0.00  0.00
  
  
  *************************
  Conduit Surcharge Summary
  *************************
  
  ----------------------------------------------------------------------------
                                                           Hours        Hours 
                         --------- Hours Full --------   Above Full   Capacity
  Conduit                Both Ends  Upstream  Dnstream   Normal Flow   Limited
  ----------------------------------------------------------------------------
  1                           8.10      8.10      8.42      0.01         0.01
  2                           0.01     11.90      0.01      0.01         0.01
  3                           7.81      7.81      8.45      0.01         0.01
  4                           0.01     11.90      0.01      0.01         0.01
  

  Analysis begun on:  Tue Oct 30 19:36:01 2018
  Analysis ended on:  Tue Oct 30 19:36:01 2018
  Total elapsed time: < 1 sec