
  EPA STORM WATER MANAGEMENT MODEL - VERSION 5.1 (Build 5.1.013)
  --------------------------------------------------------------

  
  ERROR 191: simulation start date comes after ending date.

  Analysis begun on:  Sun Nov 18 08:23:22 2018
  Analysis ended on:  Sun Nov 18 08:23:22 2018
  Total elapsed time: < 1 sec